lig_A
     RDKit          3D

  6  6  0  0  0  0  0  0  0  0999 V2000
    0.7671   -1.0881    0.0150 C   0  0  0  0  0  0  0  0  0  0  0  0
    1.4163    0.1320   -0.0012 C   0  0  0  0  0  0  0  0  0  0  0  0
    0.6014    1.2468   -0.0166 C   0  0  0  0  0  0  0  0  0  0  0  0
   -0.7676    1.0911   -0.0151 C   0  0  0  0  0  0  0  0  0  0  0  0
   -1.4024   -0.1152    0.0010 C   0  0  0  0  0  0  0  0  0  0  0  0
   -0.6014   -1.2581    0.0167 C   0  0  0  0  0  0  0  0  0  0  0  0
  1  2  2  0
  2  3  1  0
  3  4  2  0
  4  5  1  0
  5  6  2  0
  6  1  1  0
M  END
$$$$
