lig_B
     RDKit          3D

  7  7  0  0  0  0  0  0  0  0999 V2000
    2.1492   -0.1620    0.0782 C   0  0  0  0  0  0  0  0  0  0  0  0
    0.6685   -0.0216    0.0161 C   0  0  0  0  0  0  0  0  0  0  0  0
    0.1034    1.2366    0.0812 C   0  0  0  0  0  0  0  0  0  0  0  0
   -1.2917    1.3042    0.0179 C   0  0  0  0  0  0  0  0  0  0  0  0
   -2.0104    0.1342   -0.1035 C   0  0  0  0  0  0  0  0  0  0  0  0
   -1.4208   -1.1137   -0.1667 C   0  0  0  0  0  0  0  0  0  0  0  0
   -0.0403   -1.2115   -0.1063 C   0  0  0  0  0  0  0  0  0  0  0  0
  1  2  1  0
  2  3  2  0
  3  4  1  0
  4  5  2  0
  5  6  1  0
  6  7  2  0
  7  2  1  0
M  END
$$$$
